$# LS-DYNA Keyword file created by LS-PrePost 3.2 - 12Mar2012(08:25)
$# Created on Sep-18-2013 (09:39:08)
*KEYWORD  
*CONTROL_ENERGY
$#    hgen      rwen    slnten     rylen
         2         2         2         1
*CONTROL_TERMINATION
$#  endtim    endcyc     dtmin    endeng    endmas
  0.002000         0     0.000     0.000     0.000
*DATABASE_GLSTAT
$#      dt    binary      lcur     ioopt
 1.0000E-5         0         0         1
*DATABASE_RCFORC
$#      dt    binary      lcur     ioopt
 1.0000E-5         0         0         1
*DATABASE_BINARY_D3PLOT
$#      dt      lcdt      beam     npltc    psetid
 2.0000E-4         0         0         0         0
$#   ioopt
         0
*BOUNDARY_SPC_NODE
$#     nid       cid      dofx      dofy      dofz     dofrx     dofry     dofrz
        51         0         1         1         1         0         0         0
       102         0         1         1         1         0         0         0
       153         0         1         1         1         0         0         0
       204         0         1         1         1         0         0         0
       255         0         1         1         1         0         0         0
       306         0         1         1         1         0         0         0
       357         0         1         1         1         0         0         0
       408         0         1         1         1         0         0         0
       459         0         1         1         1         0         0         0
       510         0         1         1         1         0         0         0
       561         0         1         1         1         0         0         0
       612         0         1         1         1         0         0         0
       663         0         1         1         1         0         0         0
       714         0         1         1         1         0         0         0
       765         0         1         1         1         0         0         0
       816         0         1         1         1         0         0         0
       867         0         1         1         1         0         0         0
       918         0         1         1         1         0         0         0
       969         0         1         1         1         0         0         0
      1020         0         1         1         1         0         0         0
$ ... 180 like lines cut
*CONTACT_AUTOMATIC_SURFACE_TO_SURFACE
$#     cid                                                                 title
$#    ssid      msid     sstyp     mstyp    sboxid    mboxid       spr       mpr
         1         2         3         3         0         0         0         0
$#      fs        fd        dc        vc       vdc    penchk        bt        dt
     0.000     0.000     0.000     0.000     0.000         0     0.0001.0000E+20
$#     sfs       sfm       sst       mst      sfst      sfmt       fsf       vsf
  1.000000  1.000000     0.000     0.000  1.000000  1.000000  1.000000  1.000000
*PART
$# title
plate
$#     pid     secid       mid     eosid      hgid      grav    adpopt      tmid
         1         1         2         0         0         0         0         0
*SECTION_SHELL
$#   secid    elform      shrf       nip     propt   qr/irid     icomp     setyp
         1         2  1.000000         2         1         0         0         1
$#      t1        t2        t3        t4      nloc     marea      idof    edgset
  1.000000  1.000000  1.000000  1.000000     0.000     0.000     0.000         0
*MAT_PIECEWISE_LINEAR_PLASTICITY
$#     mid        ro         e        pr      sigy      etan      fail      tdel
         2 7.8500E-9 2.1000E+5  0.300000 314.00000 2100.00001.0000E+21     0.000
$#       c         p      lcss      lcsr        vp
     0.000     0.000         0         0     0.000
$#    eps1      eps2      eps3      eps4      eps5      eps6      eps7      eps8
     0.000     0.000     0.000     0.000     0.000     0.000     0.000     0.000
$#     es1       es2       es3       es4       es5       es6       es7       es8
     0.000     0.000     0.000     0.000     0.000     0.000     0.000     0.000
*PART
$# title
ball
$#     pid     secid       mid     eosid      hgid      grav    adpopt      tmid
         2         1         1         0         0         0         0         0
*MAT_ELASTIC
$#     mid        ro         e        pr        da        db  not used
         1 7.8500E-9 2.1000E+5  0.300000     0.000     0.000         0
*INITIAL_VELOCITY_NODE
$#     nid        vx        vy        vz       vxr       vyr       vzr      icid
      2602     0.000     0.000-10000.000     0.000     0.000     0.000         0
      2603     0.000     0.000-10000.000     0.000     0.000     0.000         0
      2604     0.000     0.000-10000.000     0.000     0.000     0.000         0
      2605     0.000     0.000-10000.000     0.000     0.000     0.000         0
      2606     0.000     0.000-10000.000     0.000     0.000     0.000         0
      2607     0.000     0.000-10000.000     0.000     0.000     0.000         0
      2608     0.000     0.000-10000.000     0.000     0.000     0.000         0
      2609     0.000     0.000-10000.000     0.000     0.000     0.000         0
      2610     0.000     0.000-10000.000     0.000     0.000     0.000         0
      2611     0.000     0.000-10000.000     0.000     0.000     0.000         0
      2612     0.000     0.000-10000.000     0.000     0.000     0.000         0
      2613     0.000     0.000-10000.000     0.000     0.000     0.000         0
      2614     0.000     0.000-10000.000     0.000     0.000     0.000         0
      2615     0.000     0.000-10000.000     0.000     0.000     0.000         0
      2616     0.000     0.000-10000.000     0.000     0.000     0.000         0
      2617     0.000     0.000-10000.000     0.000     0.000     0.000         0
      2618     0.000     0.000-10000.000     0.000     0.000     0.000         0
      2619     0.000     0.000-10000.000     0.000     0.000     0.000         0
      2620     0.000     0.000-10000.000     0.000     0.000     0.000         0
      2621     0.000     0.000-10000.000     0.000     0.000     0.000         0
$ ... 582 like lines cut
*ELEMENT_SHELL
$#   eid     pid      n1      n2      n3      n4      n5      n6      n7      n8
       1       1      52      53       2       1       0       0       0       0
       2       1      53      54       3       2       0       0       0       0
       3       1      54      55       4       3       0       0       0       0
       4       1      55      56       5       4       0       0       0       0
       5       1      56      57       6       5       0       0       0       0
       6       1      57      58       7       6       0       0       0       0
       7       1      58      59       8       7       0       0       0       0
       8       1      59      60       9       8       0       0       0       0
       9       1      60      61      10       9       0       0       0       0
      10       1      61      62      11      10       0       0       0       0
      11       1      62      63      12      11       0       0       0       0
      12       1      63      64      13      12       0       0       0       0
      13       1      64      65      14      13       0       0       0       0
      14       1      65      66      15      14       0       0       0       0
      15       1      66      67      16      15       0       0       0       0
      16       1      67      68      17      16       0       0       0       0
      17       1      68      69      18      17       0       0       0       0
      18       1      69      70      19      18       0       0       0       0
      19       1      70      71      20      19       0       0       0       0
      20       1      71      72      21      20       0       0       0       0
$ ... 3080 like lines cut
*NODE
$#   nid               x               y               z      tc      rc
       1     -100.000000     -100.000000           0.000       0       0
       2     -100.000000      -96.000000           0.000       0       0
       3     -100.000000      -92.000000           0.000       0       0
       4     -100.000000      -88.000000           0.000       0       0
       5     -100.000000      -84.000000           0.000       0       0
       6     -100.000000      -80.000000           0.000       0       0
       7     -100.000000      -76.000000           0.000       0       0
       8     -100.000000      -72.000000           0.000       0       0
       9     -100.000000      -68.000000           0.000       0       0
      10     -100.000000      -64.000000           0.000       0       0
      11     -100.000000      -60.000000           0.000       0       0
      12     -100.000000      -56.000000           0.000       0       0
      13     -100.000000      -52.000000           0.000       0       0
      14     -100.000000      -48.000000           0.000       0       0
      15     -100.000000      -44.000000           0.000       0       0
      16     -100.000008      -40.000008           0.000       0       0
      17     -100.000000      -36.000000           0.000       0       0
      18     -100.000000      -32.000000           0.000       0       0
      19     -100.000000      -28.000000           0.000       0       0
      20     -100.000000      -24.000000           0.000       0       0
$ ... 3183 like lines cut
*END
